Version 4
SHEET 1 880 680
WIRE -304 -736 -304 -752
WIRE 0 -672 -80 -672
WIRE 112 -672 80 -672
WIRE -304 -640 -304 -656
WIRE -304 -640 -384 -640
WIRE 112 -608 112 -672
WIRE 144 -608 112 -608
WIRE 256 -608 224 -608
WIRE -384 -592 -384 -640
WIRE 0 -576 -16 -576
WIRE 96 -576 80 -576
WIRE -16 -560 -16 -576
WIRE -304 -528 -304 -560
WIRE 112 -528 112 -608
WIRE 144 -528 112 -528
WIRE 256 -512 256 -608
WIRE 256 -512 208 -512
WIRE 0 -496 -16 -496
WIRE 96 -496 96 -576
WIRE 96 -496 80 -496
WIRE 144 -496 96 -496
WIRE -16 -480 -16 -496
WIRE -192 -432 -352 -432
WIRE -352 -368 -352 -432
WIRE -304 -368 -352 -368
WIRE -192 -352 -192 -432
WIRE -192 -352 -240 -352
WIRE -80 -352 -80 -672
WIRE -80 -352 -192 -352
WIRE -304 -336 -384 -336
WIRE 16 -336 0 -336
WIRE 112 -336 96 -336
WIRE 144 -336 112 -336
WIRE 256 -336 224 -336
WIRE -384 -304 -384 -336
WIRE 0 -304 0 -336
WIRE 112 -256 112 -336
WIRE 144 -256 112 -256
WIRE 256 -240 256 -336
WIRE 256 -240 208 -240
WIRE -80 -224 -80 -352
WIRE 0 -224 -80 -224
WIRE 96 -224 80 -224
WIRE 144 -224 96 -224
WIRE -384 -176 -384 -224
WIRE 0 -128 -80 -128
WIRE 96 -128 96 -224
WIRE 96 -128 80 -128
WIRE -80 -96 -80 -128
WIRE -240 32 -384 32
WIRE -384 64 -384 32
WIRE -240 64 -240 32
WIRE -208 144 -240 144
WIRE -96 144 -128 144
WIRE -240 208 -240 144
WIRE -208 208 -240 208
WIRE -96 224 -96 144
WIRE -96 224 -144 224
WIRE 32 224 -96 224
WIRE -864 240 -1056 240
WIRE -720 240 -784 240
WIRE -688 240 -720 240
WIRE -560 240 -608 240
WIRE -480 240 -560 240
WIRE -368 240 -400 240
WIRE -208 240 -368 240
WIRE -720 272 -720 240
WIRE -368 272 -368 240
WIRE -64 288 -128 288
WIRE 32 288 32 224
WIRE 32 288 0 288
WIRE -1056 336 -1056 240
WIRE -560 384 -560 240
WIRE -128 384 -128 288
WIRE -128 384 -560 384
FLAG -16 -560 0
FLAG -16 -480 0
FLAG -80 -96 0
FLAG 0 -304 0
FLAG -304 -752 15
FLAG -304 -528 -15
FLAG -384 -592 0
FLAG 176 -544 15
FLAG -272 -384 15
FLAG 176 -272 15
FLAG 176 -208 -15
FLAG -272 -320 -15
FLAG 176 -480 -15
FLAG -384 -176 0
FLAG -176 192 15
FLAG -176 256 -15
FLAG -368 336 0
FLAG -720 336 0
FLAG -1056 416 0
FLAG -384 64 0
SYMBOL OpAmps\\LT1001 176 -576 R0
SYMATTR InstName U1
SYMBOL OpAmps\\LT1001 176 -304 R0
SYMATTR InstName U2
SYMBOL res 240 -624 R90
WINDOW 0 0 56 VBottom 2
WINDOW 3 32 56 VTop 2
SYMATTR InstName R1
SYMATTR Value 1000
SYMBOL res 240 -352 R90
WINDOW 0 0 56 VBottom 2
WINDOW 3 32 56 VTop 2
SYMATTR InstName R2
SYMATTR Value 1000
SYMBOL res 96 -592 R90
WINDOW 0 0 56 VBottom 2
WINDOW 3 32 56 VTop 2
SYMATTR InstName R3
SYMATTR Value 1000
SYMBOL res 96 -512 R90
WINDOW 0 0 56 VBottom 2
WINDOW 3 32 56 VTop 2
SYMATTR InstName R4
SYMATTR Value 1000
SYMBOL res 96 -240 R90
WINDOW 0 0 56 VBottom 2
WINDOW 3 32 56 VTop 2
SYMATTR InstName R5
SYMATTR Value 1000
SYMBOL res 96 -144 R90
WINDOW 0 0 56 VBottom 2
WINDOW 3 32 56 VTop 2
SYMATTR InstName R6
SYMATTR Value 1000
SYMBOL res 96 -688 R90
WINDOW 0 0 56 VBottom 2
WINDOW 3 32 56 VTop 2
SYMATTR InstName R7
SYMATTR Value 1000
SYMBOL res 112 -352 R90
WINDOW 0 0 56 VBottom 2
WINDOW 3 32 56 VTop 2
SYMATTR InstName R8
SYMATTR Value 1000
SYMBOL OpAmps\\LT1001 -272 -416 R0
SYMATTR InstName U3
SYMBOL voltage -304 -752 R0
WINDOW 123 0 0 Left 0
WINDOW 39 0 0 Left 0
SYMATTR InstName V1
SYMATTR Value 15
SYMBOL voltage -304 -656 R0
WINDOW 123 0 0 Left 0
WINDOW 39 0 0 Left 0
SYMATTR InstName V2
SYMATTR Value 15
SYMBOL voltage -384 -320 R0
WINDOW 123 0 0 Left 0
WINDOW 39 0 0 Left 0
SYMATTR InstName V3
SYMATTR Value SINE(0 1 5 0 0 0 1000)
SYMBOL OpAmps\\LT1001 -176 160 R0
SYMATTR InstName U4
SYMBOL voltage -1056 320 R0
WINDOW 123 0 0 Left 0
WINDOW 39 0 0 Left 0
SYMATTR InstName V4
SYMATTR Value SINE(0 1 50000 0 0 0 3000)
SYMBOL cap -384 272 R0
SYMATTR InstName C1
SYMATTR Value 330p
SYMBOL cap 0 272 R90
WINDOW 0 0 32 VBottom 2
WINDOW 3 32 32 VTop 2
SYMATTR InstName C2
SYMATTR Value .0022µ
SYMBOL cap -736 272 R0
SYMATTR InstName C3
SYMATTR Value .0047µ
SYMBOL res -384 224 R90
WINDOW 0 0 56 VBottom 2
WINDOW 3 32 56 VTop 2
SYMATTR InstName R9
SYMATTR Value 36k
SYMBOL res -592 224 R90
WINDOW 0 0 56 VBottom 2
WINDOW 3 32 56 VTop 2
SYMATTR InstName R10
SYMATTR Value 110k
SYMBOL res -768 224 R90
WINDOW 0 0 56 VBottom 2
WINDOW 3 32 56 VTop 2
SYMATTR InstName R11
SYMATTR Value 12k
SYMBOL res -112 128 R90
WINDOW 0 0 56 VBottom 2
WINDOW 3 32 56 VTop 2
SYMATTR InstName R12
SYMATTR Value 0
SYMBOL res -224 160 R180
WINDOW 0 36 76 Left 2
WINDOW 3 36 40 Left 2
SYMATTR InstName R13
SYMATTR Value 700000000
TEXT -416 -72 Left 2 !.tran 0 .1 0
